*Heading
** Job name: Job-5 Model name: Model-1
** Generated by: Abaqus/CAE 2016
*Preprint, echo=NO, model=NO, history=NO, contact=NO
**
** PARTS
**
*Part, name=plate
*Node
      1,  0.100100003, 0.00499993283,           0.
      2,           0., 0.00499987509,           0.
      3,           0., 0.00499995006, 0.000699999975
      4,  0.100100003, 0.0050000078, 0.000699999975
      5,           0.,           0.,           0.
      6,           0.,           0., 0.000699999975
      7,  0.100100003,           0., 0.000699999975
      8,  0.100100003,           0.,           0.
      9,  0.100100003, 0.00749999983,           0.
     10,           0., 0.00749999983,           0.
     11,           0., 0.00749999983, 0.000699999975
     12,  0.100100003, 0.00749999983, 0.000699999975
     13,  0.129999995, 0.00499995006,           0.
     14,  0.129999995, 0.00749999983,           0.
     15,  0.129999995, 0.00749999983, 0.000699999975
     16,  0.129999995, 0.00500002503, 0.000699999975
     17,  0.129999995,           0.,           0.
     18,  0.129999995,           0., 0.000699999975
     19, 0.0993999988, 0.00499993237,           0.
     20, 0.0987000018, 0.0049999319,           0.
** ... 4468 like lines cut
*Element, type=EC3D8R
   1,  593, 1177, 2029,  592,    1,   19,  302,    4
   2, 1177, 1178, 2030, 2029,   19,   20,  301,  302
   3, 1178, 1179, 2031, 2030,   20,   21,  300,  301
   4, 1179, 1180, 2032, 2031,   21,   22,  299,  300
   5, 1180, 1181, 2033, 2032,   22,   23,  298,  299
   6, 1181, 1182, 2034, 2033,   23,   24,  297,  298
   7, 1182, 1183, 2035, 2034,   24,   25,  296,  297
   8, 1183, 1184, 2036, 2035,   25,   26,  295,  296
   9, 1184, 1185, 2037, 2036,   26,   27,  294,  295
  10, 1185, 1186, 2038, 2037,   27,   28,  293,  294
  11, 1186, 1187, 2039, 2038,   28,   29,  292,  293
  12, 1187, 1188, 2040, 2039,   29,   30,  291,  292
  13, 1188, 1189, 2041, 2040,   30,   31,  290,  291
  14, 1189, 1190, 2042, 2041,   31,   32,  289,  290
  15, 1190, 1191, 2043, 2042,   32,   33,  288,  289
  16, 1191, 1192, 2044, 2043,   33,   34,  287,  288
  17, 1192, 1193, 2045, 2044,   34,   35,  286,  287
  18, 1193, 1194, 2046, 2045,   35,   36,  285,  286
  19, 1194, 1195, 2047, 2046,   36,   37,  284,  285
  20, 1195, 1196, 2048, 2047,   37,   38,  283,  284
** ... 2026 like lines cut
*Nset, nset=Set-1, generate
    1,  4488,     1
*Elset, elset=Set-1, generate
    1,  2046,     1
** Section: platesection
*Eulerian Section, elset=Set-1
platematerial, platematerial-1
*Surface, type=EULERIAN MATERIAL, name=platematerial-1
platematerial-1
*End Part
**  
*Part, name=press
*Node
      1,           0.,           0., 0.000699999975
      2, 0.0146396207,           0., 0.000699999975
      3, 0.0146396207,           0.,           0.
      4,           0.,           0.,           0.
      5, 0.0151139619, 0.000341886131, 0.000699999975
      6, 0.0151139619, 0.000341886131,           0.
      7, 0.0199999996, 0.0149999997, 0.000699999975
      8, 0.0199999996, 0.0149999997,           0.
      9, 0.0199999996, 0.0199999996, 0.000699999975
     10, 0.0199999996, 0.0199999996,           0.
     11,           0., 0.0199999996, 0.000699999975
     12,           0., 0.0199999996,           0.
     13, 0.000975974719,           0., 0.000699999975
     14, 0.00195194944,           0., 0.000699999975
     15, 0.00292792404,           0., 0.000699999975
     16, 0.00390389888,           0., 0.000699999975
     17, 0.00487987325,           0., 0.000699999975
     18, 0.00585584808,           0., 0.000699999975
     19, 0.00683182292,           0., 0.000699999975
     20, 0.00780779775,           0., 0.000699999975
** ... 134 like lines cut
*Element, type=S4R
 1,  1, 13, 40,  4
 2, 13, 14, 39, 40
 3, 14, 15, 38, 39
 4, 15, 16, 37, 38
 5, 16, 17, 36, 37
 6, 17, 18, 35, 36
 7, 18, 19, 34, 35
 8, 19, 20, 33, 34
 9, 20, 21, 32, 33
10, 21, 22, 31, 32
11, 22, 23, 30, 31
12, 23, 24, 29, 30
13, 24, 25, 28, 29
14, 25, 26, 27, 28
15, 26,  2,  3, 27
16,  2, 41, 42,  3
17, 41,  5,  6, 42
18,  5, 43, 70,  6
19, 43, 44, 69, 70
20, 44, 45, 68, 69
** ... 57 like lines cut
*Nset, nset=Set-1, generate
   1,  154,    1
*Elset, elset=Set-1, generate
  1,  77,   1
*Nset, nset=Set-2
 1,
*Elset, elset=_pressSurface_, internal, generate
  1,  77,   1
*Elset, elset=_pressSurface_E1, internal, generate
  1,  17,   1
*Surface, type=ELEMENT, name=pressSurface
_pressSurface_, 
_pressSurface_E1, E1
** Section: presssection
*Shell Section, elset=Set-1, material=pressmaterial
0.001, 5
*End Part
**  
**
** ASSEMBLY
**
*Assembly, name=Assembly
**  
*Instance, name=plate-1, part=plate
*End Instance
**  
*Instance, name=press-1, part=press
          0.,        0.005,           0.
*End Instance
**  
*Node
      1,           0., 0.00499999989, 0.000699999975
*Nset, nset=Set-2, instance=plate-1
    1,    2,    3,    4,    7,    8,    9,   10,   11,   12,   13,   14,   15,   16,   17,   18
   19,   20,   21,   22,   23,   24,   25,   26,   27,   28,   29,   30,   31,   32,   33,   34
   35,   36,   37,   38,   39,   40,   41,   42,   43,   44,   45,   46,   47,   48,   49,   50
   51,   52,   53,   54,   55,   56,   57,   58,   59,   60,   61,   62,   63,   64,   65,   66
   67,   68,   69,   70,   71,   72,   73,   74,   75,   76,   77,   78,   79,   80,   81,   82
   83,   84,   85,   86,   87,   88,   89,   90,   91,   92,   93,   94,   95,   96,   97,   98
   99,  100,  101,  102,  103,  104,  105,  106,  107,  108,  109,  110,  111,  112,  113,  114
  115,  116,  117,  118,  119,  120,  121,  122,  123,  124,  125,  126,  127,  128,  129,  130
  131,  132,  133,  134,  135,  136,  137,  138,  139,  140,  141,  142,  143,  144,  145,  146
  147,  148,  149,  150,  151,  152,  153,  154,  155,  156,  157,  158,  159,  160,  161,  162
  163,  164,  165,  166,  167,  168,  169,  170,  171,  172,  173,  174,  175,  176,  177,  178
  179,  180,  181,  182,  183,  184,  185,  186,  187,  188,  189,  190,  191,  192,  193,  194
  195,  196,  197,  198,  199,  200,  201,  202,  203,  204,  205,  206,  207,  208,  209,  210
  211,  212,  213,  214,  215,  216,  217,  218,  219,  220,  221,  222,  223,  224,  225,  226
  227,  228,  229,  230,  231,  232,  233,  234,  235,  236,  237,  238,  239,  240,  241,  242
  243,  244,  245,  246,  247,  248,  249,  250,  251,  252,  253,  254,  255,  256,  257,  258
  259,  260,  261,  262,  263,  264,  265,  266,  267,  268,  269,  270,  271,  272,  273,  274
  275,  276,  277,  278,  279,  280,  281,  282,  283,  284,  285,  286,  287,  288,  289,  290
  291,  292,  293,  294,  295,  296,  297,  298,  299,  300,  301,  302,  587,  588,  589,  590
  591,  592,  593,  594,  595,  596,  597,  598,  611,  612,  613,  614,  615,  616,  617,  618
** ... 136 like lines cut
*Elset, elset=Set-2, instance=plate-1, generate
 1002,  2046,     1
*Nset, nset=Set-4, instance=plate-1
   2,   3,   5,   6, 599, 600, 601, 602, 603, 604, 605, 606, 607, 608, 609, 610
*Elset, elset=Set-4, instance=plate-1, generate
  143,  1001,   143
*Nset, nset=Set-5, instance=plate-1
   5,   6,   7,   8, 303, 304, 305, 306, 307, 308, 309, 310, 311, 312, 313, 314
 315, 316, 317, 318, 319, 320, 321, 322, 323, 324, 325, 326, 327, 328, 329, 330
 331, 332, 333, 334, 335, 336, 337, 338, 339, 340, 341, 342, 343, 344, 345, 346
 347, 348, 349, 350, 351, 352, 353, 354, 355, 356, 357, 358, 359, 360, 361, 362
 363, 364, 365, 366, 367, 368, 369, 370, 371, 372, 373, 374, 375, 376, 377, 378
 379, 380, 381, 382, 383, 384, 385, 386, 387, 388, 389, 390, 391, 392, 393, 394
 395, 396, 397, 398, 399, 400, 401, 402, 403, 404, 405, 406, 407, 408, 409, 410
 411, 412, 413, 414, 415, 416, 417, 418, 419, 420, 421, 422, 423, 424, 425, 426
 427, 428, 429, 430, 431, 432, 433, 434, 435, 436, 437, 438, 439, 440, 441, 442
 443, 444, 445, 446, 447, 448, 449, 450, 451, 452, 453, 454, 455, 456, 457, 458
 459, 460, 461, 462, 463, 464, 465, 466, 467, 468, 469, 470, 471, 472, 473, 474
 475, 476, 477, 478, 479, 480, 481, 482, 483, 484, 485, 486, 487, 488, 489, 490
 491, 492, 493, 494, 495, 496, 497, 498, 499, 500, 501, 502, 503, 504, 505, 506
 507, 508, 509, 510, 511, 512, 513, 514, 515, 516, 517, 518, 519, 520, 521, 522
 523, 524, 525, 526, 527, 528, 529, 530, 531, 532, 533, 534, 535, 536, 537, 538
 539, 540, 541, 542, 543, 544, 545, 546, 547, 548, 549, 550, 551, 552, 553, 554
 555, 556, 557, 558, 559, 560, 561, 562, 563, 564, 565, 566, 567, 568, 569, 570
 571, 572, 573, 574, 575, 576, 577, 578, 579, 580, 581, 582, 583, 584, 585, 586
*Elset, elset=Set-5, instance=plate-1, generate
  859,  1001,     1
*Nset, nset=Set-6, instance=plate-1
    1,    2,    3,    4,    5,    6,    7,    8,   19,   20,   21,   22,   23,   24,   25,   26
   27,   28,   29,   30,   31,   32,   33,   34,   35,   36,   37,   38,   39,   40,   41,   42
   43,   44,   45,   46,   47,   48,   49,   50,   51,   52,   53,   54,   55,   56,   57,   58
   59,   60,   61,   62,   63,   64,   65,   66,   67,   68,   69,   70,   71,   72,   73,   74
   75,   76,   77,   78,   79,   80,   81,   82,   83,   84,   85,   86,   87,   88,   89,   90
   91,   92,   93,   94,   95,   96,   97,   98,   99,  100,  101,  102,  103,  104,  105,  106
  107,  108,  109,  110,  111,  112,  113,  114,  115,  116,  117,  118,  119,  120,  121,  122
  123,  124,  125,  126,  127,  128,  129,  130,  131,  132,  133,  134,  135,  136,  137,  138
  139,  140,  141,  142,  143,  144,  145,  146,  147,  148,  149,  150,  151,  152,  153,  154
  155,  156,  157,  158,  159,  160,  161,  162,  163,  164,  165,  166,  167,  168,  169,  170
  171,  172,  173,  174,  175,  176,  177,  178,  179,  180,  181,  182,  183,  184,  185,  186
  187,  188,  189,  190,  191,  192,  193,  194,  195,  196,  197,  198,  199,  200,  201,  202
  203,  204,  205,  206,  207,  208,  209,  210,  211,  212,  213,  214,  215,  216,  217,  218
  219,  220,  221,  222,  223,  224,  225,  226,  227,  228,  229,  230,  231,  232,  233,  234
  235,  236,  237,  238,  239,  240,  241,  242,  243,  244,  245,  246,  247,  248,  249,  250
  251,  252,  253,  254,  255,  256,  257,  258,  259,  260,  261,  262,  263,  264,  265,  266
  267,  268,  269,  270,  271,  272,  273,  274,  275,  276,  277,  278,  279,  280,  281,  282
  283,  284,  285,  286,  287,  288,  289,  290,  291,  292,  293,  294,  295,  296,  297,  298
  299,  300,  301,  302,  303,  304,  305,  306,  307,  308,  309,  310,  311,  312,  313,  314
  315,  316,  317,  318,  319,  320,  321,  322,  323,  324,  325,  326,  327,  328,  329,  330
** ... 124 like lines cut
*Elset, elset=Set-6, instance=plate-1, generate
    1,  1001,     1
*Nset, nset=Set-7
 1,
*Nset, nset=m_Set-1, instance=plate-1
 3,
** Constraint: Constraint-1
*Coupling, constraint name=Constraint-1, ref node=m_Set-1, surface=press-1.pressSurface
*Kinematic
*End Assembly
*Amplitude, name=Amp-1, definition=SMOOTH STEP
             0.,              0.,           0.001,              1.
** 
** MATERIALS
** 
*Material, name=platematerial
*Density
2700.,
*Elastic
 7e+10, 0.3
*Plastic
 2.2e+08,     0.
 2.3e+08, 0.0845
 2.5e+08, 0.0969
 2.6e+08, 0.1104
 2.6e+08, 0.1252
 2.7e+08, 0.1412
 2.8e+08, 0.1587
 2.9e+08, 0.1775
   3e+08, 0.1979
 3.1e+08, 0.2197
 3.2e+08, 0.2432
 3.3e+08, 0.2684
 3.4e+08, 0.2953
 3.5e+08,  0.324
 3.6e+08, 0.3546
 3.7e+08, 0.3871
 3.8e+08, 0.4216
 3.9e+08, 0.4581
   4e+08, 0.4968
 4.1e+08, 0.5376
** ... 37 like lines cut
*Material, name=pressmaterial
*Density
2700.,
*Elastic
 7e+10, 0.3
** 
** INTERACTION PROPERTIES
** 
*Surface Interaction, name=IntProp-1
*Friction
0.,
*Surface Behavior, pressure-overclosure=HARD
** 
** BOUNDARY CONDITIONS
** 
** Name: displacement Type: Displacement/Rotation
*Boundary
m_Set-1, 2, 2
** Name: planeFix Type: Displacement/Rotation
*Boundary
Set-6, 3, 3
** Name: symmetryX Type: Symmetry/Antisymmetry/Encastre
*Boundary
Set-4, XSYMM
** Name: symmetryY Type: Symmetry/Antisymmetry/Encastre
*Boundary
Set-5, YSYMM
** 
** PREDEFINED FIELDS
** 
** Name: Predefined Field-1   Type: Material assignment
*Initial Conditions, type=VOLUME FRACTION
plate-1.Set-1, plate-1.platematerial-1, 1.
** ----------------------------------------------------------------
** 
** STEP: Step-1
** 
*Step, name=Step-1, nlgeom=YES
*Dynamic, Explicit
, 0.001
*Bulk Viscosity
0.06, 1.2
** 
** BOUNDARY CONDITIONS
** 
** Name: displacement Type: Displacement/Rotation
*Boundary, amplitude=Amp-1
m_Set-1, 2, 2, -0.0025
** 
** INTERACTIONS
** 
** Interaction: Int-1
*Contact, op=NEW
*Contact Inclusions, ALL EXTERIOR
*Contact Property Assignment
 ,  , IntProp-1
** 
** OUTPUT REQUESTS
** 
*Restart, write, number interval=1, time marks=NO
** 
** FIELD OUTPUT: F-Output-1
** 
*Output, field, variable=PRESELECT
** 
** HISTORY OUTPUT: H-Output-1
** 
*Output, history, variable=PRESELECT
*End Step
