1

   Abaqus 3DEXPERIENCE R2016x                                  Date 05-May-2019   Time 21:28:50
   For use at UNIVERSITAET BERN under license from Dassault Systemes or its subsidiary.



                         The Abaqus Software is a product of:

                           Dassault Systemes SIMULIA Corp.
                           1301 Atwood Avenue, Suite 101W
                              Johnston, RI 02919, USA
 


                   Available for internal use at UNIVERSITAET BERN. 
                   The Abaqus Online Support System is accessible
                   through the "My Support" section of the SIMULIA
                   Home Page at http://www.simulia.com.

                   Support policies for academic licenses are described
                   on the SIMULIA web site at
                   http://www.3ds.com/products/simulia/academics/
 
                          On machine localhost.localdomain 
                          you are authorized to run
                          Abaqus/Explicit until 31-Jan-2020

                          Your site id is: 200000000031934 


 
                    For assistance or any other information you may
                    obtain contact information for your local office
                    from the world wide web at:

                      http://www.3ds.com/products/simulia/locations/

 
                * * * * * * * * * * * * * * * * * * * * * * * * * * * * * * 
                *                                                         * 
                *                   *****************                     * 
                *                   *  N O T I C E  *                     * 
                *                   *****************                     * 
                *                                                         * 
                *                                                         * 
                *                    Abaqus 3DEXPERIENCE R2016x                                   * 
                *                                                         * 
                *          BUILD ID: 2015_09_24-22.31.09 126547           * 
                *                                                         * 
                *                                                         * 
                *  Please make sure you are using release 3DEXPERIENCE R2016x manuals    * 
                *  plus the notes accompanying this release.              * 
                *                                                         * 
                *                                                         * 
                *                                                         * 
                *                                                         * 
                *                                                         * 
                *   This program may not be used for commercial purposes  * 
                *           without payment of a commercial fee.          * 
                *                                                         * 
                * * * * * * * * * * * * * * * * * * * * * * * * * * * * * * 


 



     PROCESSING PART, INSTANCE, AND ASSEMBLY INFORMATION
   *******************************************************


     END PROCESSING PART, INSTANCE, AND ASSEMBLY INFORMATION
   ***********************************************************




     OPTIONS BEING PROCESSED
   ***************************


  *Heading
  *Node
  *Element, type=EC3D8R
  *Nset, nset=ASSEMBLY_PLATE-1_SET-1
  *Elset, elset=ASSEMBLY_PLATE-1_SET-1
  *Node
  *Element, type=S4R
  *Nset, nset=ASSEMBLY_PRESS-1_SET-1
  *Nset, nset=ASSEMBLY_PRESS-1_SET-2
  *Elset, elset=ASSEMBLY_PRESS-1_SET-1
  *Elset, elset=ASSEMBLY_PRESS-1__PRESSSURFACE_
  *Elset, elset=ASSEMBLY_PRESS-1__PRESSSURFACE_E1
  *Node
  *Nset, nset=ASSEMBLY_M_SET-1
  *Nset, nset=ASSEMBLY_SET-2
  *Nset, nset=ASSEMBLY_SET-4
  *Nset, nset=ASSEMBLY_SET-5
  *Nset, nset=ASSEMBLY_SET-6
  *Nset, nset=ASSEMBLY_SET-7
  *Elset, elset=ASSEMBLY_SET-2
  *Elset, elset=ASSEMBLY_SET-4
  *Elset, elset=ASSEMBLY_SET-5
  *Elset, elset=ASSEMBLY_SET-6
  *material, name=PLATEMATERIAL
  *density
  *elastic
  *plastic
  *material, name=PRESSMATERIAL
  *density
  *elastic
  *shellsection, elset=ASSEMBLY_PRESS-1_SET-1, material=PRESSMATERIAL
  *shellsection, elset=ASSEMBLY_PRESS-1_SET-1, material=PRESSMATERIAL
  *surface, type=EULERIANMATERIAL, name=ASSEMBLY_PLATE-1_PLATEMATERIAL-1
  *surface, type=ELEMENT, name=ASSEMBLY_PRESS-1_PRESSSURFACE
  *surface, type=EULERIANMATERIAL, name=ASSEMBLY_PLATE-1_PLATEMATERIAL-1
  *surface, type=ELEMENT, name=ASSEMBLY_PRESS-1_PRESSSURFACE
  *coupling, constraintname=ASSEMBLY_CONSTRAINT-1, refnode=ASSEMBLY_M_SET-1, surface=ASSEMBLY_PRESS-1_PRESSSURFACE
  *coupling, constraintname=ASSEMBLY_CONSTRAINT-1, refnode=ASSEMBLY_M_SET-1, surface=ASSEMBLY_PRESS-1_PRESSSURFACE
  *coupling, constraintname=ASSEMBLY_CONSTRAINT-1, refnode=ASSEMBLY_M_SET-1, surface=ASSEMBLY_PRESS-1_PRESSSURFACE
  *kinematic
  *coupling, constraintname=ASSEMBLY_CONSTRAINT-1, refnode=ASSEMBLY_M_SET-1, surface=ASSEMBLY_PRESS-1_PRESSSURFACE
  *surfaceinteraction, name=INTPROP-1
  *friction
  *euleriansection, elset=ASSEMBLY_PLATE-1_SET-1
  *boundary
  *boundary
  *boundary
  *boundary
  *boundary, amplitude=AMP-1
  *euleriansection, elset=ASSEMBLY_PLATE-1_SET-1
  *initialconditions, type=VOLUMEFRACTION
  *friction
  *initialconditions, type=VOLUMEFRACTION
  *initialconditions, type=VOLUMEFRACTION
  *amplitude, name=AMP-1, definition=SMOOTHSTEP
  *output, field, variable=PRESELECT
  *output, history, variable=PRESELECT
  *Step, name=Step-1, nlgeom=YES

 ***WARNING: NODE SET ASSEMBLY_SET-7 HAS NO MEMBERS AND WILL BE IGNORED.  NODES 
             DEFINED IN THIS SET MAY HAVE BEEN DELETED BECAUSE THEY WERE NOT 
             CONNECTED TO ANY ELEMENTS.
  *Step, name=Step-1, nlgeom=YES
  *dynamic, explicit
  *boundary, amplitude=AMP-1
  *output, field, variable=PRESELECT
  *output, history, variable=PRESELECT
  *endstep
  *surface, type=EULERIANMATERIAL, name=ASSEMBLY_PLATE-1_PLATEMATERIAL-1
  *surface, type=ELEMENT, name=ASSEMBLY_PRESS-1_PRESSSURFACE
  *surfaceinteraction, name=INTPROP-1
  *friction
  *surfacebehavior, pressure-overclosure=HARD
  *boundary
  *boundary
  *boundary
  *boundary
  *Step, name=Step-1, nlgeom=YES
  *dynamic, explicit
  *boundary, amplitude=AMP-1

 ***WARNING: THE OPTION *BOUNDARY,TYPE=DISPLACEMENT HAS BEEN USED; CHECK STATUS 
             FILE BETWEEN STEPS FOR WARNINGS ON ANY JUMPS PRESCRIBED ACROSS THE 
             STEPS IN DISPLACEMENT VALUES OF TRANSLATIONAL DOF. FOR ROTATIONAL 
             DOF MAKE SURE THAT THERE ARE NO SUCH JUMPS. ALL JUMPS IN 
             DISPLACEMENTS ACROSS STEPS ARE IGNORED
  *contact, op=NEW
  *contactinclusions, allexterior
  *contactpropertyassignment
  *endstep
     NUMBER OF MATERIALS DEFINED FOR THIS SECTION:       1



                            P R O B L E M   S I Z E


          NUMBER OF ELEMENTS IS                                  2123
          NUMBER OF NODES IS                                     4642
          NUMBER OF NODES DEFINED BY THE USER                    4642
          TOTAL NUMBER OF VARIABLES IN THE MODEL                14391
          (DEGREES OF FREEDOM PLUS MAX NO. OF ANY LAGRANGE MULTIPLIER
           VARIABLES. INCLUDE *PRINT,SOLVE=YES TO GET THE ACTUAL NUMBER.)



                              END OF USER INPUT PROCESSING



     JOB TIME SUMMARY
       USER TIME (SEC)      =  0.41000    
       SYSTEM TIME (SEC)    =  2.00000E-02
       TOTAL CPU TIME (SEC) =  0.43000    
       WALLCLOCK TIME (SEC) =          1
